$# LS-DYNA Keyword file created by LS-PrePost(R) V4.8.1 - 05Oct2020
$# Created on Oct-6-2020 (21:12:57)
*KEYWORD
*DATABASE_HISTORY_NODE_ID
$#     id1                                                               heading
         1Ball
*CONTACT_AUTOMATIC_SURFACE_TO_SURFACE_ID
$#     cid                                                                 title
         1Ball-table
$#    ssid      msid     sstyp     mstyp    sboxid    mboxid       spr       mpr
         1         2         3         3         0         0         0         0
$#      fs        fd        dc        vc       vdc    penchk        bt        dt
       0.0       0.0       0.0       0.0       0.0         0       0.01.00000E20
$#     sfs       sfm       sst       mst      sfst      sfmt       fsf       vsf
       1.0       1.0       0.0       0.0       1.0       1.0       1.0       1.0
*CONTACT_AUTOMATIC_SURFACE_TO_SURFACE_ID
$#     cid                                                                 title
         2Ball_cupouter
$#    ssid      msid     sstyp     mstyp    sboxid    mboxid       spr       mpr
         1         4         3         3         0         0         0         0
$#      fs        fd        dc        vc       vdc    penchk        bt        dt
       0.0       0.0       0.0       0.0       0.0         0       0.01.00000E20
$#     sfs       sfm       sst       mst      sfst      sfmt       fsf       vsf
       1.0       1.0       0.0       0.0       1.0       1.0       1.0       1.0
*CONTACT_AUTOMATIC_SURFACE_TO_SURFACE_ID
$#     cid                                                                 title
         3Ball_cupinner
$#    ssid      msid     sstyp     mstyp    sboxid    mboxid       spr       mpr
         1         3         3         3         0         0         0         0
$#      fs        fd        dc        vc       vdc    penchk        bt        dt
       0.0       0.0       0.0       0.0       0.0         0       0.01.00000E20
$#     sfs       sfm       sst       mst      sfst      sfmt       fsf       vsf
       1.0       1.0       0.0       0.0       1.0       1.0       1.0       1.0
*INITIAL_VELOCITY
$#    nsid    nsidex     boxid    irigid      icid
         1         0         0         0         0
$#      vx        vy        vz       vxr       vyr       vzr
       1.0       0.0       1.0       0.0       0.0       0.0
*PART
$#                                                                         title
Ball
$#     pid     secid       mid     eosid      hgid      grav    adpopt      tmid
         1         1         1         0         0         0         0         0
*SECTION_SHELL_TITLE
Ball
$#   secid    elform      shrf       nip     propt   qr/irid     icomp     setyp
         1         2    0.8666         5       1.0         0         0         1
$#      t1        t2        t3        t4      nloc     marea      idof    edgset
4.00000E-44.00000E-44.00000E-44.00000E-4       0.0       0.0       0.0         0
*MAT_ELASTIC_TITLE
Ball
$#     mid        ro         e        pr        da        db  not used
         1    1400.02.400000E9       0.3       0.0       0.0       0.0
*PART
$#                                                                         title
Table
$#     pid     secid       mid     eosid      hgid      grav    adpopt      tmid
         2         2         2         0         0         0         0         0
*SECTION_SHELL_TITLE
Table
$#   secid    elform      shrf       nip     propt   qr/irid     icomp     setyp
         2         2    0.8666         5       1.0         0         0         1
$#      t1        t2        t3        t4      nloc     marea      idof    edgset
      0.01      0.01      0.01      0.01       0.0       0.0       0.0         0
*MAT_RIGID
$#     mid        ro         e        pr         n    couple         m     alias
         2    1000.02.10000E10       0.3       0.0       0.0       0.0
$#     cmo      con1      con2
       1.0         7         7
$#lco or a1        a2        a3        v1        v2        v3
       0.0       0.0       0.0       0.0       0.0       0.0
*PART
$#                                                                         title
Cup_in
$#     pid     secid       mid     eosid      hgid      grav    adpopt      tmid
         3         3         2         0         0         0         0         0
*SECTION_SHELL_TITLE
Cup
$#   secid    elform      shrf       nip     propt   qr/irid     icomp     setyp
         3         2    0.8666         5       1.0         0         0         1
$#      t1        t2        t3        t4      nloc     marea      idof    edgset
     0.001     0.001     0.001     0.001       0.0       0.0       0.0         0
*PART
$#                                                                         title
Cup_out
$#     pid     secid       mid     eosid      hgid      grav    adpopt      tmid
         4         3         2         0         0         0         0         0
*NODE
$#   nid               x               y               z      tc      rc
       1      -0.9993365             0.0       0.2729799       0       0
       2      -0.9993365             0.0       0.3129799       0       0
       5       -0.979838             0.0       0.2885295       0       0
       8      -0.9906588             0.0       0.3109992       0       0
      11      -0.9906588             0.0       0.2749605       0       0
      12      -0.9836999             0.0       0.2805101       0       0
      14       -0.979838             0.0       0.2974303       0       0
      15      -0.9836999             0.0       0.3054497       0       0
      17      -0.9814174       0.0084725       0.2956488       0       0
      18      -0.9814618       0.0077982       0.2885431       0       0
      19      -0.9848002       0.0096958       0.3027105       0       0
      20      -0.9846215       0.0081656       0.2821728       0       0
      21      -0.9923598       0.0106467       0.3084063       0       0
      22       -1.002281       0.0094026       0.3103845       0       0
      23      -0.9907383       0.0090769       0.2773696       0       0
      24      -0.9995576       0.0096758       0.2754776       0       0
      25      -0.9814646      -0.0077894       0.2885166       0       0
      26      -0.9813659      -0.0083745       0.2956113       0       0
      27      -0.9846423      -0.0081452       0.2821292       0       0
      28      -0.9846563      -0.0095378       0.3026505       0       0
$ ... 1003 like lines cut
*SET_NODE_LIST
$#     sid       da1       da2       da3       da4    solver
         1       0.0       0.0       0.0       0.0MECH
$#    nid1      nid2      nid3      nid4      nid5      nid6      nid7      nid8
         1         2         5         8        11        12        14        15
        17        18        19        20        21        22        23        24
        25        26        27        28        29        30        31        32
        33        34        35        36        37        38        39        40
        41        42        43        44        45        46        47        48
        50        51        52        53        54        55        56        57
        58        59        60        61        62        63        64        65
        66        67        69        70        71        72         0         0
*ELEMENT_SHELL
$#   eid     pid      n1      n2      n3      n4      n5      n6      n7      n8
       1       1      14       5      18      17       0       0       0       0
       2       1      15      14      17      19       0       0       0       0
       3       1       5      12      20      18       0       0       0       0
       4       1       8      15      19      21       0       0       0       0
       5       1       2       8      21      22       0       0       0       0
       6       1      12      11      23      20       0       0       0       0
       7       1      11       1      24      23       0       0       0       0
       8       1       5      14      26      25       0       0       0       0
       9       1      12       5      25      27       0       0       0       0
      10       1      14      15      28      26       0       0       0       0
      11       1      11      12      27      29       0       0       0       0
      12       1       1      11      29      30       0       0       0       0
      13       1      15       8      31      28       0       0       0       0
      14       1       8       2      32      31       0       0       0       0
      15       1      25      26      34      33       0       0       0       0
      16       1      27      25      33      35       0       0       0       0
      17       1      26      28      36      34       0       0       0       0
      18       1      28      31      37      36       0       0       0       0
      19       1      29      27      35      38       0       0       0       0
      20       1      30      29      38      39       0       0       0       0
$ ... 883 like lines cut
*END
